tests/data/state_estimation/ill-conditioned-system/grid3-no-capacitance/asym_output.json
{
  "version": "1.0",
  "type": "asym_output",
  "is_batch": false,
  "attributes": {},
  "data": {
    "node": [
      {
        "id": 0,
        "energized": 1,
        "u_pu": [
          0.9946887264570634,
          0.9946887264570632,
          0.9946887264570634
        ],
        "u": [
          5742.838039798716,
          5742.838039798715,
          5742.838039798716
        ],
        "u_angle": [
          -0.007080647130854444,
          -2.101475749524051,
          2.087314455262341
        ],
        "p": [
          502082.0986237937,
          502082.0986239082,
          502082.0986238733
        ],
        "q": [
          302082.0986238646,
          302082.0986238178,
          302082.0986238002
        ]
      },
      {
        "id": 1,
        "energized": 1,
        "u_pu": [
          0.9922635353842043,
          0.9922635353842039,
          0.9922635353842042
        ],
        "u": [
          5728.836192611201,
          5728.836192611198,
          5728.8361926112
        ],
        "u_angle": [
          -0.007688553998255267,
          -2.102083656391452,
          2.08670654839494
        ],
        "p": [
          7.505809345210201e-08,
          -8.346973750260934e-08,
          -7.908397587951802e-08
        ],
        "q": [
          -1.93788725501103e-08,
          1.362796750093407e-07,
          6.322034558489565e-08
        ]
      },
      {
        "id": 2,
        "energized": 1,
        "u_pu": [
          0.9898387127998624,
          0.989838712799862,
          0.9898387127998626
        ],
        "u": [
          5714.836472893132,
          5714.83647289313,
          5714.836472893133
        ],
        "u_angle": [
          -0.008299439489281382,
          -2.102694541882478,
          2.086095662903914
        ],
        "p": [
          -500000.0000000193,
          -499999.9999999751,
          -499999.9999999448
        ],
        "q": [
          -299999.9999999958,
          -300000.0000001043,
          -300000.000000014
        ]
      }
    ],
    "line": [
      {
        "id": 3,
        "energized": 1,
        "p_from": [
          502082.0986237937,
          502082.0986239082,
          502082.0986238733
        ],
        "q_from": [
          302082.0986238646,
          302082.0986238178,
          302082.0986238002
        ],
        "i_from": [
          102.0318240513536,
          102.0318240513665,
          102.0318240513597
        ],
        "s_from": [
          585952.2404321629,
          585952.2404322368,
          585952.2404321978
        ],
        "p_to": [
          -501041.0493118691,
          -501041.0493119833,
          -501041.0493119486
        ],
        "q_to": [
          -301041.04931194,
          -301041.0493118929,
          -301041.0493118754
        ],
        "i_to": [
          102.0318240513536,
          102.0318240513665,
          102.0318240513597
        ],
        "s_to": [
          584523.6064235325,
          584523.6064236062,
          584523.6064235674
        ]
      },
      {
        "id": 4,
        "energized": 1,
        "p_from": [
          501041.0493119441,
          501041.0493118999,
          501041.0493118694
        ],
        "q_from": [
          301041.0493119206,
          301041.0493120292,
          301041.0493119386
        ],
        "i_from": [
          102.0318240513631,
          102.0318240513663,
          102.0318240513536
        ],
        "s_from": [
          584523.6064235868,
          584523.6064236049,
          584523.6064235321
        ],
        "p_to": [
          -500000.0000000193,
          -499999.9999999751,
          -499999.9999999448
        ],
        "q_to": [
          -299999.9999999958,
          -300000.0000001043,
          -300000.000000014
        ],
        "i_to": [
          102.0318240513631,
          102.0318240513663,
          102.0318240513536
        ],
        "s_to": [
          583095.1894845444,
          583095.1894845624,
          583095.18948449
        ]
      }
    ],
    "source": [
      {
        "id": 5,
        "energized": 1,
        "p": [
          502082.0986237937,
          502082.0986239082,
          502082.0986238733
        ],
        "q": [
          302082.0986238646,
          302082.0986238177,
          302082.0986238002
        ],
        "i": [
          102.0318240513536,
          102.0318240513665,
          102.0318240513597
        ],
        "s": [
          585952.2404321628,
          585952.2404322368,
          585952.2404321978
        ],
        "pf": [
          0.8568652254891771,
          0.8568652254892644,
          0.8568652254892618
        ]
      }
    ],
    "sym_load": [
      {
        "id": 6,
        "energized": 1,
        "p": [
          500000,
          500000,
          500000
        ],
        "q": [
          299999.9999999999,
          299999.9999999999,
          299999.9999999999
        ],
        "i": [
          102.0318240513606,
          102.0318240513606,
          102.0318240513605
        ],
        "s": [
          583095.1894845299,
          583095.1894845299,
          583095.1894845299
        ],
        "pf": [
          0.8574929257125444,
          0.8574929257125444,
          0.8574929257125444
        ]
      }
    ]
  }
}
