tests/data/state_estimation/ill-conditioned-system/grid3-no-capacitance/sym_output.json
{
  "version": "1.0",
  "type": "sym_output",
  "is_batch": false,
  "attributes": {},
  "data": {
    "node": [
      {
        "id": 0,
        "energized": 1,
        "u_pu": 0.9946887264570634,
        "u": 9946.887264570634,
        "u_angle": -0.007080647130854704,
        "p": 1506246.295871608,
        "q": 906246.2958716485
      },
      {
        "id": 1,
        "energized": 1,
        "u_pu": 0.9922635353842041,
        "u": 9922.63535384204,
        "u_angle": -0.007688553998255594,
        "p": -8.673164994138707e-10,
        "q": -1.128039693030065e-07
      },
      {
        "id": 2,
        "energized": 1,
        "u_pu": 0.9898387127998622,
        "u": 9898.387127998622,
        "u_angle": -0.008299439489281751,
        "p": -1500000.000000058,
        "q": -899999.9999999867
      }
    ],
    "line": [
      {
        "id": 3,
        "energized": 1,
        "p_from": 1506246.295871608,
        "q_from": 906246.2958716485,
        "i_from": 102.0318240513665,
        "s_from": 1757856.721296711,
        "p_to": -1503123.147935833,
        "q_to": -903123.147935874,
        "i_to": 102.0318240513665,
        "s_to": 1753570.819270819
      },
      {
        "id": 4,
        "energized": 1,
        "p_from": 1503123.147935832,
        "q_from": 903123.1479357611,
        "i_from": 102.0318240513631,
        "s_from": 1753570.819270761,
        "p_to": -1500000.000000058,
        "q_to": -899999.9999999867,
        "i_to": 102.0318240513631,
        "s_to": 1749285.568453633
      }
    ],
    "source": [
      {
        "id": 5,
        "energized": 1,
        "p": 1506246.295871608,
        "q": 906246.2958716485,
        "i": 102.0318240513665,
        "s": 1757856.721296711,
        "pf": 0.8568652254891976
      }
    ],
    "sym_load": [
      {
        "id": 6,
        "energized": 1,
        "p": 1500000,
        "q": 899999.9999999999,
        "i": 102.0318240513606,
        "s": 1749285.56845359,
        "pf": 0.8574929257125443
      }
    ]
  }
}
